<?xml version="1.0" encoding="UTF-8"?>

<!-- generated on Tue Nov 27 18:25:16 2018 by SUMO netconvert Version 0.32.0
<?xml version="1.0" encoding="UTF-8"?>

<configuration xmlns:xsi="http://www.w3.org/2001/XMLSchema-instance" xsi:noNamespaceSchemaLocation="http://sumo.dlr.de/xsd/netconvertConfiguration.xsd">

    <input>
        <node-files value="lc.nod.xml"/>
        <edge-files value="lc.edg.xml"/>
    </input>

    <output>
        <output-file value="lc.net.xml"/>
    </output>

</configuration>
-->

<net version="0.27" xmlns:xsi="http://www.w3.org/2001/XMLSchema-instance" xsi:noNamespaceSchemaLocation="http://sumo.dlr.de/xsd/net_file.xsd">

    <location netOffset="0.00,0.00" convBoundary="0.00,0.00,0.00,500.00" origBoundary="0.00,0.00,0.00,500.00" projParameter="!"/>

    <edge id="1to2" from="1" to="2" priority="-1">
        <lane id="1to2_0" index="0" speed="60.00" length="500.00" shape="1.65,0.00 1.65,500.00"/>
    </edge>

    <junction id="1" type="dead_end" x="0.00" y="0.00" incLanes="" intLanes="" shape="0.05,0.00 3.25,0.00"/>
    <junction id="2" type="dead_end" x="0.00" y="500.00" incLanes="1to2_0" intLanes="" shape="3.25,500.00 0.05,500.00"/>

</net>
