<nodes>
    <node id="1" x="0.0" y="0.0" />
    <node id="2" x="0.0" y="500.0" />
</nodes>
