<routes>
    <vType accel="1.0" decel="5.0" id="Car" length="2.0" maxSpeed="100.0" sigma="1.0" />
    <route id="route0" edges="1to2"/>

</routes>
